Version 4
SHEET 1 1636 680
WIRE 240 -192 128 -192
WIRE 368 -192 240 -192
WIRE 448 -192 368 -192
WIRE 784 -192 608 -192
WIRE 928 -192 784 -192
WIRE 1136 -192 928 -192
WIRE 1280 -192 1136 -192
WIRE 784 -160 784 -192
WIRE 1136 -96 1136 -192
WIRE 240 -80 240 -192
WIRE 368 -80 368 -192
WIRE 528 -48 528 -96
WIRE 784 -48 784 -80
WIRE 784 -48 528 -48
WIRE 528 -32 528 -48
WIRE 1280 -32 1280 -192
WIRE 1568 -32 1280 -32
WIRE 0 -16 -272 -16
WIRE 32 -16 0 -16
WIRE 128 -16 128 -192
WIRE 128 -16 96 -16
WIRE 784 0 784 -48
WIRE 928 0 928 -192
WIRE 0 16 0 -16
WIRE 128 16 128 -16
WIRE 1568 48 1280 48
WIRE -272 64 -272 -16
WIRE 240 112 240 -16
WIRE 368 112 368 -16
WIRE 368 112 240 112
WIRE 448 112 368 112
WIRE 528 112 528 48
WIRE 528 112 448 112
WIRE 784 112 784 64
WIRE 784 112 528 112
WIRE 928 112 928 64
WIRE 928 112 784 112
WIRE 1136 112 1136 -32
WIRE 1136 112 928 112
WIRE 1280 112 1280 48
WIRE 1280 112 1136 112
WIRE 0 128 0 80
WIRE 32 128 0 128
WIRE 128 128 128 80
WIRE 128 128 96 128
WIRE 784 160 784 112
WIRE 928 160 928 112
WIRE 1280 176 1280 112
WIRE 1568 176 1280 176
WIRE 528 192 528 112
WIRE -272 208 -272 144
WIRE 128 208 128 128
WIRE 128 208 -272 208
WIRE 448 208 448 112
WIRE 240 240 240 112
WIRE 368 240 368 112
WIRE 1568 256 1280 256
WIRE 1136 272 1136 112
WIRE 528 320 528 272
WIRE 624 320 528 320
WIRE 784 320 784 224
WIRE 784 320 624 320
WIRE 0 432 0 128
WIRE 240 432 240 304
WIRE 240 432 0 432
WIRE 368 432 368 304
WIRE 368 432 240 432
WIRE 480 432 368 432
WIRE 784 432 784 400
WIRE 784 432 608 432
WIRE 928 432 928 224
WIRE 928 432 784 432
WIRE 1136 432 1136 336
WIRE 1136 432 928 432
WIRE 1280 432 1280 256
WIRE 1280 432 1136 432
WIRE 544 512 544 480
WIRE 624 512 624 320
WIRE 624 512 544 512
FLAG 448 208 0
FLAG 1280 -192 Vout1
IOPIN 1280 -192 Out
FLAG 1280 432 Vout2
IOPIN 1280 432 Out
SYMBOL Misc/LM317 528 -160 R0
WINDOW 3 -37 5 Left 2
SYMATTR InstName U1
SYMBOL Misc/LM337 544 432 R0
SYMATTR InstName U2
SYMBOL diode 32 0 R270
WINDOW 0 32 32 VTop 2
WINDOW 3 0 32 VBottom 2
SYMATTR InstName D1
SYMBOL diode 16 80 R180
WINDOW 0 24 64 Left 2
WINDOW 3 24 0 Left 2
SYMATTR InstName D2
SYMBOL diode 144 80 R180
WINDOW 0 24 64 Left 2
WINDOW 3 24 0 Left 2
SYMATTR InstName D3
SYMBOL diode 32 144 R270
WINDOW 0 32 32 VTop 2
WINDOW 3 0 32 VBottom 2
SYMATTR InstName D4
SYMBOL polcap 224 -80 R0
WINDOW 3 24 56 Left 2
SYMATTR Value 2200µF
SYMATTR InstName C1
SYMATTR Description Capacitor
SYMATTR Type cap
SYMATTR SpiceLine Rser=37m Lser=0 mfg="Nichicon" pn="UPR1H222MRH" type="Al electrolytic"
SYMBOL polcap 224 240 R0
WINDOW 3 24 56 Left 2
SYMATTR Value 2200µF
SYMATTR InstName C2
SYMATTR Description Capacitor
SYMATTR Type cap
SYMATTR SpiceLine Rser=37m Lser=0 mfg="Nichicon" pn="UPR1H222MRH" type="Al electrolytic"
SYMBOL polcap 912 0 R0
SYMATTR InstName C3
SYMATTR Value 10µ
SYMATTR Description Capacitor
SYMATTR Type cap
SYMATTR SpiceLine Rser=1.8 Lser=0 mfg="Nichicon" pn="UPR2A100MPH" type="Al electrolytic"
SYMBOL polcap 768 0 R0
SYMATTR InstName C4
SYMATTR Value 10µ
SYMATTR Description Capacitor
SYMATTR Type cap
SYMATTR SpiceLine Rser=1.8 Lser=0 mfg="Nichicon" pn="UPR2A100MPH" type="Al electrolytic"
SYMBOL polcap 768 160 R0
SYMATTR InstName C5
SYMATTR Value 10µ
SYMATTR Description Capacitor
SYMATTR Type cap
SYMATTR SpiceLine Rser=1.8 Lser=0 mfg="Nichicon" pn="UPR2A100MPH" type="Al electrolytic"
SYMBOL polcap 912 160 R0
SYMATTR InstName C6
SYMATTR Value 10µ
SYMATTR Description Capacitor
SYMATTR Type cap
SYMATTR SpiceLine Rser=1.8 Lser=0 mfg="Nichicon" pn="UPR2A100MPH" type="Al electrolytic"
SYMBOL voltage -272 48 R0
SYMATTR InstName V1
SYMATTR Value SINE(0 24 60)
SYMBOL res 800 -64 R180
WINDOW 0 36 76 Left 2
WINDOW 3 36 40 Left 2
SYMATTR InstName R1
SYMATTR Value 180
SYMBOL res 800 416 R180
WINDOW 0 36 76 Left 2
WINDOW 3 36 40 Left 2
SYMATTR InstName R2
SYMATTR Value 180
SYMBOL cap 352 240 R0
SYMATTR InstName C7
SYMATTR Value 100n
SYMATTR SpiceLine Rser=60.6m Lser=0 mfg="KEMET" pn="C1210C104K5RAC" type="X7R"
SYMBOL cap 352 -80 R0
SYMATTR InstName C8
SYMATTR Value 100n
SYMATTR SpiceLine Rser=60.6m Lser=0 mfg="KEMET" pn="C1210C104K5RAC" type="X7R"
SYMBOL cap 1120 -96 R0
SYMATTR InstName C9
SYMATTR Value 100n
SYMATTR SpiceLine Rser=60.6m Lser=0 mfg="KEMET" pn="C1210C104K1RAC" type="X7R"
SYMBOL cap 1120 272 R0
SYMATTR InstName C10
SYMATTR Value 100n
SYMATTR SpiceLine Rser=60.6m Lser=0 mfg="KEMET" pn="C1210C104K1RAC" type="X7R"
SYMBOL res 512 -48 R0
SYMATTR InstName R3
SYMATTR Value 1K
SYMBOL res 512 176 R0
SYMATTR InstName R4
SYMATTR Value 1.06K
SYMBOL res 1552 -48 R0
SYMATTR InstName RL1
SYMATTR Value 100
SYMBOL res 1552 160 R0
SYMATTR InstName RL2
SYMATTR Value 100
TEXT -280 560 Left 2 !.tran 2000ms
TEXT 480 504 Left 1 ;LM337
