Version 4
SHEET 1 1724 680
WIRE 256 -192 96 -192
WIRE 384 -192 256 -192
WIRE 448 -192 384 -192
WIRE 784 -192 608 -192
WIRE 928 -192 784 -192
WIRE 1056 -192 928 -192
WIRE 1280 -192 1056 -192
WIRE -32 -160 -272 -160
WIRE 784 -160 784 -192
WIRE -32 -112 -32 -160
WIRE 0 -112 -32 -112
WIRE 96 -112 96 -192
WIRE 96 -112 64 -112
WIRE -272 -96 -272 -160
WIRE 1280 -96 1280 -192
WIRE -32 -80 -32 -112
WIRE 96 -80 96 -112
WIRE 256 -80 256 -192
WIRE 384 -80 384 -192
WIRE 928 -80 928 -192
WIRE 1056 -80 1056 -192
WIRE 528 -48 528 -96
WIRE 784 -48 784 -80
WIRE 784 -48 528 -48
WIRE 528 -32 528 -48
WIRE -32 32 -32 -16
WIRE 0 32 -32 32
WIRE 96 32 96 -16
WIRE 96 32 64 32
WIRE -272 80 -272 -16
WIRE 96 80 96 32
WIRE 96 80 -272 80
WIRE -272 112 -272 80
WIRE -32 112 -32 32
WIRE -32 112 -272 112
WIRE 256 112 256 -16
WIRE 256 112 -32 112
WIRE 384 112 384 -16
WIRE 384 112 256 112
WIRE 528 112 528 48
WIRE 528 112 384 112
WIRE 928 112 928 -16
WIRE 928 112 528 112
WIRE 1056 112 1056 -16
WIRE 1056 112 928 112
WIRE 1280 112 1280 -16
WIRE 1280 112 1056 112
WIRE -272 144 -272 112
WIRE 1280 192 1280 112
FLAG -272 144 0
FLAG 1280 192 0
SYMBOL diode 0 -96 R270
WINDOW 0 32 32 VTop 2
WINDOW 3 0 32 VBottom 2
SYMATTR InstName D1
SYMBOL diode -16 -16 R180
WINDOW 0 24 64 Left 2
WINDOW 3 24 0 Left 2
SYMATTR InstName D2
SYMBOL diode 112 -16 R180
WINDOW 0 24 64 Left 2
WINDOW 3 24 0 Left 2
SYMATTR InstName D3
SYMBOL diode 0 48 R270
WINDOW 0 32 32 VTop 2
WINDOW 3 0 32 VBottom 2
SYMATTR InstName D4
SYMBOL polcap 240 -80 R0
WINDOW 3 24 56 Left 2
SYMATTR Value 6800µF
SYMATTR InstName C1
SYMATTR Description Capacitor
SYMATTR Type cap
SYMATTR SpiceLine mfg="   ---" pn="   ---" type="   ---"
SYMBOL polcap 912 -80 R0
SYMATTR InstName C3
SYMATTR Value 10µ
SYMATTR Description Capacitor
SYMATTR Type cap
SYMATTR SpiceLine Rser=1.8 Lser=0 mfg="Nichicon" pn="UPR2A100MPH" type="Al electrolytic"
SYMBOL voltage -272 -112 R0
SYMATTR InstName V1
SYMATTR Value SINE(0 24 60)
SYMBOL res 768 -176 R0
SYMATTR InstName R1
SYMATTR Value 180
SYMBOL cap 368 -80 R0
SYMATTR InstName C8
SYMATTR Value 100n
SYMATTR SpiceLine Rser=60.6m Lser=0 mfg="KEMET" pn="C1210C104K5RAC" type="X7R"
SYMBOL cap 1040 -80 R0
SYMATTR InstName C9
SYMATTR Value 100n
SYMATTR SpiceLine Rser=60.6m Lser=0 mfg="KEMET" pn="C1210C104K1RAC" type="X7R"
SYMBOL res 512 -48 R0
SYMATTR InstName R3
SYMATTR Value 5K
SYMBOL res 1264 -112 R0
SYMATTR InstName R2
SYMATTR Value 10
SYMBOL Misc/LM317-TI 528 -160 R0
SYMATTR InstName U1
TEXT -280 192 Left 2 !.tran 500ms
